Circuit: * C:\Users\emman\OneDrive\Desktop\Digital Design\Extracting NMOS Effective Resistance\Draft1.asc

Error on line 2 : m1 0 n002 0 0 n_50n l=50n w=500n
	 Unable to find definition of model "w"
	
	* Error:  No unlabeled parameter permitted for MOSFET's
Error on line 3 : v1 n001 0 v
	 Unknown parameter "v"
V1: Missing value, assumed 0V @ DC
.OP point found by inspection.

Date: Wed Feb 16 16:33:34 2022
Total elapsed time: 2.202 seconds.

tnom = 27
temp = 27
method = modified trap
totiter = 20034
traniter = 20034
tranpoints = 10018
accept = 10018
rejected = 0
matrix size = 3
fillins = 0
solver = Normal
Matrix Compiler1: 50 bytes object code size  0.0/0.0/[0.0]
Matrix Compiler2: 175 bytes object code size  0.0/0.0/[0.0]

