Circuit: * C:\Users\emman\OneDrive\Desktop\Digital Design\Extracting NMOS Effective Resistance\nmos_R_extract.asc

Direct Newton iteration for .op point succeeded.

t1: time=2.05e-009 at 2.05e-009
t2: time=3.79925e-009 at 3.79925e-009
prop_delay: t2-t1=1.74925e-009
eff_res: prop_delay/(0.7*1p)=2498.93


Date: Wed Feb 16 16:30:07 2022
Total elapsed time: 0.157 seconds.

tnom = 27
temp = 27
method = modified trap
totiter = 20055
traniter = 20051
tranpoints = 10026
accept = 10024
rejected = 2
matrix size = 7
fillins = 0
solver = Normal
Matrix Compiler1:      25 opcodes  0.1/[0.1]/0.1
Matrix Compiler2: 603 bytes object code size  0.1/0.1/[0.1]

